# Packages
 &PACKAGES
  useEXF         = .TRUE.,
  useCAL         = .TRUE.,
  useDiagnostics = .TRUE.,
 &
