 =====================================================================
# External Forcing Package (EXF) Configuration Namelist
# =====================================================================

 &EXF_NML_01
 useExfCheckRange = .FALSE.,
 &

 &EXF_NML_02
 atempfile = 'ATEMP.bin',
 aqhfile   =   'AQH.bin',
 uwindfile = 'UWIND.bin',
 &

 &EXF_NML_03
 &

 &EXF_NML_04
 &
