 &diagnostics_list

# === CALCULATED BULK FORMULAE FLUXES ===
  fields(1,1)  = 'EXFhs',
  fields(2,1)  = 'EXFhl',
  fields(3,1)  = 'EXFtaux',

# === INPUT ATMOSPHERIC FORCING FIELDS ===
  fields(4,1)  = 'EXFatemp',
  fields(5,1)  = 'EXFaqh',
  fields(6,1)  = 'EXFuwind',

# === FILE PROPERTIES ===
  fileName(1)  = 'bulk_fluxes',
  frequency(1) = 3600.0,
 /

 &diag_statis_parms
 /
